Examples/InverterModels/PVSystem2/InvControl2/MonitoredVoltage/Mon_voltage_MAX_Mix_ravg_sec10_VLN_Node.Txt

LINE-GROUND and LINE-LINE VOLTAGES BY BUS & NODE

Bus  Node    VLN (kV)   Angle      pu     Base kV    Node-Node   VLL (kV)  Angle      pu

A .. 1       8.1146 /_    4.6    1.0185    13.800        1-2     14.056 /_   34.6    1.0186
   - 2       8.1169 /_ -115.4    1.0188    13.800        2-3     14.056 /_  -85.4    1.0186
   - 3       8.1149 /_  124.6    1.0185    13.800        3-1     14.057 /_  154.6    1.0186
B .. 1       8.1311 /_    6.1    1.0205    13.800        1-2     14.066 /_   35.9    1.0193
   - 2       8.0958 /_ -114.1    1.0161    13.800        2-3     14.003 /_  -84.1    1.0147
   - 3       8.0856 /_  126.0    1.0148    13.800        3-1     14.041 /_  156.2    1.0175
C .. 1      0.28327 /_    6.1    1.0222     0.480        1-2    0.49003 /_   36.0    1.0209
   - 2      0.28205 /_ -114.1    1.0178     0.480        2-3    0.48786 /_  -84.0    1.0164
   - 3      0.28169 /_  126.1    1.0165     0.480        3-1    0.48918 /_  156.2    1.0191
